Version 4
SHEET 1 1064 680
WIRE 144 -16 -144 -16
WIRE 576 -16 144 -16
WIRE 192 80 16 80
WIRE -432 96 -432 48
WIRE -288 96 -288 48
WIRE 96 112 0 112
WIRE 96 144 96 112
WIRE 192 144 192 80
WIRE -144 176 -144 -16
WIRE 576 192 576 -16
WIRE -432 208 -432 176
WIRE -288 208 -288 176
WIRE 192 368 192 336
WIRE 272 368 192 368
WIRE 432 368 432 176
WIRE 432 368 352 368
WIRE 192 400 192 368
WIRE -144 448 -144 256
WIRE 0 448 0 112
WIRE 0 448 -144 448
WIRE 96 448 96 336
WIRE 96 448 0 448
WIRE 128 448 96 448
WIRE 176 448 128 448
WIRE 464 448 272 448
WIRE 576 448 576 272
WIRE 576 448 464 448
WIRE 576 480 576 448
FLAG -432 208 0
FLAG -432 48 V2
FLAG 432 176 V2
FLAG 576 480 0
FLAG 464 448 D
FLAG 144 -16 vcc
FLAG -288 208 0
FLAG -288 48 V3
FLAG 16 80 V3
FLAG 128 448 S
SYMBOL res -128 272 R180
WINDOW 0 36 76 Left 2
WINDOW 3 36 40 Left 2
SYMATTR InstName R1
SYMATTR Value 10
SYMBOL nmos 272 400 R90
WINDOW 0 -6 29 VRight 2
WINDOW 3 70 -20 VRight 2
SYMATTR InstName M1
SYMATTR Value IRFR2607Z
SYMBOL voltage -432 80 R0
SYMATTR InstName V2
SYMATTR Value 12V
SYMBOL res 368 352 R90
WINDOW 0 0 56 VBottom 2
WINDOW 3 32 56 VTop 2
SYMATTR InstName R2
SYMATTR Value 1k
SYMBOL voltage 576 176 R0
WINDOW 3 25 102 Left 2
WINDOW 123 0 0 Left 0
WINDOW 39 0 0 Left 0
SYMATTR Value 12
SYMATTR InstName V1
SYMBOL Optos\\PC817A 144 240 R90
SYMATTR InstName U1
SYMBOL voltage -288 80 R0
WINDOW 3 226 -51 Left 2
WINDOW 123 0 0 Left 0
WINDOW 39 0 0 Left 0
SYMATTR Value PULSE(0 2 5m 10n 10n 10m 20m 1)
SYMATTR InstName V3
TEXT 608 328 Left 2 !.tran 0 20m 0 100u
